powerflow/Codes/PF_Formulation/resultados_csv/16/test_system/barras.csv
caso,script,bus_id,vm_pu,va_rad,pd_pu,qd_pu,pg_pu,qg_pu,bus_type
test_system.pwf,16,23,1.024999999971028,0.0,0.0,0.0,0.3482855382920313,-0.0798849782072427,3
test_system.pwf,16,24,1.0287769732870484,-0.21546821186174112,0.34600000000000003,0.069,0.0,0.0,1
test_system.pwf,16,26,1.040946591981659,-0.11851419457562944,0.0,0.0,0.0,0.0,1
test_system.pwf,16,29,1.0300899747606256,-0.02061803173474335,0.0,0.0,0.0,0.0,1
